


 36 37  0  0  0  0  0  0  0  0999 V2000
    9.2272   -6.0542   16.3228 C   0  0  0  0  0  0  0  0  0  0  0  0
    8.4735   -6.0614   14.9938 C   0  0  0  0  0  0  0  0  0  0  0  0
   10.1682   -7.2449   16.5137 C   0  0  0  0  0  0  0  0  0  0  0  0
    9.8043   -8.2872   17.1786 N   0  0  0  0  0  0  0  0  0  0  0  0
    8.8374   -8.2628   17.5105 H   0  0  0  0  0  0  0  0  0  0  0  0
   11.4645   -7.1681   16.0022 N   0  0  0  0  0  0  0  0  0  0  0  0
   11.8394   -7.9640   14.8357 C   0  0  0  0  0  0  0  0  0  0  0  0
   12.3330   -6.0822   16.2403 C   0  0  0  0  0  0  0  0  0  0  0  0
   12.9738   -5.5779   15.3135 O   0  0  0  0  0  0  0  0  0  0  0  0
   12.4785   -5.5783   17.6939 C   0  0  0  0  0  0  0  0  0  0  0  0
   12.9867   -6.7121   18.5920 C   0  0  0  0  0  0  0  0  0  0  0  0
   13.3241   -4.2604   17.8444 C   0  0  0  0  0  0  0  0  0  0  0  0
   14.6528   -4.5911   18.5543 C   0  0  0  0  0  0  0  0  0  0  0  0
   12.6153   -3.0385   18.5044 C   0  0  0  0  0  0  0  0  0  0  0  0
   13.2604   -1.6952   18.1387 C   0  0  0  0  0  0  0  0  0  0  0  0
   11.1462   -2.9237   18.1097 C   0  0  0  0  0  0  0  0  0  0  0  0
   10.2449   -3.2829   18.8696 O   0  0  0  0  0  0  0  0  0  0  0  0
   10.8658   -2.3863   16.7159 C   0  0  0  0  0  0  0  0  0  0  0  0
    9.4076   -2.5267   16.3186 C   0  0  0  0  0  0  0  0  0  0  0  0
    8.2275   -5.9254   17.4628 C   0  0  0  0  0  0  0  0  0  0  0  0
    8.5787   -6.1806   18.6165 O   0  0  0  0  0  0  0  0  0  0  0  0
    6.8047   -5.4676   17.1160 C   0  0  0  0  0  0  0  0  0  0  0  0
    5.8235   -6.4959   17.1553 O   0  0  0  0  0  0  0  0  0  0  0  0
    2.0272   -6.5142   21.3199 C   0  0  0  0  0  0  0  0  0  0  0  0
    0.9698   -5.6992   21.2454 C   0  0  0  0  0  0  0  0  0  0  0  0
    0.7520   -4.7887   20.1073 C   0  0  0  0  0  0  0  0  0  0  0  0
   -0.2320   -4.0589   20.0674 O   0  0  0  0  0  0  0  0  0  0  0  0
    1.7028   -4.8047   19.0967 O   0  0  0  0  0  0  0  0  0  0  0  0
    2.8250   -5.6575   19.1622 C   0  0  0  0  0  0  0  0  0  0  0  0
    3.7273   -5.5990   18.0959 C   0  0  0  0  0  0  0  0  0  0  0  0
    4.8479   -6.4239   18.1143 C   0  0  0  0  0  0  0  0  0  0  0  0
    5.0349   -7.2790   19.2112 C   0  0  0  0  0  0  0  0  0  0  0  0
    4.1328   -7.3348   20.2711 C   0  0  0  0  0  0  0  0  0  0  0  0
    3.0093   -6.5124   20.2488 C   0  0  0  0  0  0  0  0  0  0  0  0
    6.1323   -8.0973   19.2654 O   0  0  0  0  0  0  0  0  0  0  0  0
    6.6608   -7.8757   18.4740 H   0  0  0  0  0  0  0  0  0  0  0  0
 24 25  2  0  0  0
 24 34  1  0  0  0
 25 26  1  0  0  0
 26 27  2  0  0  0
 26 28  1  0  0  0
 28 29  1  0  0  0
 29 30  2  0  0  0
 29 34  1  0  0  0
 30 31  1  0  0  0
 31 32  2  0  0  0
 31 23  1  0  0  0
 32 33  1  0  0  0
 32 35  1  0  0  0
 33 34  2  0  0  0
 35 36  1  0  0  0
 23 22  1  0  0  0
 22 20  1  0  0  0
 20 21  2  0  0  0
 20  1  1  0  0  0
  1  2  1  0  0  0
  1  3  1  0  0  0
  3  4  2  0  0  0
  3  6  1  0  0  0
  4  5  1  0  0  0
  6  7  1  0  0  0
  6  8  1  0  0  0
  8  9  2  0  0  0
  8 10  1  0  0  0
 10 11  1  0  0  0
 10 12  1  0  0  0
 12 13  1  0  0  0
 12 14  1  0  0  0
 14 15  1  0  0  0
 14 16  1  0  0  0
 16 17  2  0  0  0
 16 18  1  0  0  0
 18 19  1  0  0  0
M  END
> <minimizedAffinity>
-5.89214

> <CNNscore>
0.5723235607

> <CNNaffinity>
6.1128702164

> <CNN_VS>
3.4985396862

> <CNNaffinity_variance>
0.1774309725

$$$$
